<?xml version="1.0" encoding="UTF-8"?>

<!-- generated on 05/22/19 13:17:42 by Eclipse SUMO netedit Version 1.1.0
<configuration xmlns:xsi="http://www.w3.org/2001/XMLSchema-instance" xsi:noNamespaceSchemaLocation="http://sumo.dlr.de/xsd/netconvertConfiguration.xsd">

    <input>
        <sumo-net-file value="C:\Users\user\Dropbox\[CSRL]%20Traffic%20Control%20Research\Chula-SSS-master\models\sathorn-morning-caswakul_sumoconf2018\sathorn_w_fixed_20160404.net.xml"/>
    </input>

    <output>
        <output-file value="C:\Users\user\Dropbox\[CSRL]%20Traffic%20Control%20Research\Chula-SSS-master\models\sathorn-morning-caswakul_sumoconf2018\sathorn_w_fixed_20160404.net.xml"/>
    </output>

    <processing>
        <geometry.max-grade.fix value="false"/>
        <offset.disable-normalization value="true"/>
        <lefthand value="true"/>
    </processing>

    <junctions>
        <no-turnarounds value="true"/>
        <junctions.corner-detail value="0"/>
        <junctions.limit-turn-speed value="-1"/>
        <rectangular-lane-cut value="false"/>
    </junctions>

    <pedestrian>
        <walkingareas value="false"/>
    </pedestrian>

</configuration>
-->

<additional xmlns:xsi="http://www.w3.org/2001/XMLSchema-instance" xsi:noNamespaceSchemaLocation="http://sumo.dlr.de/xsd/additional_file.xsd">
    <e1Detector id="e1Detector_L10017_0_in" lane="L10017_0" pos="98.68" freq="900.00" file="/home/mild/sumologfile/e1Detector_L10017_0_274.xml"/>
    <e1Detector id="e1Detector_L10017_0_out" lane="L10017_0" pos="243.68" freq="900.00" file="/home/mild/sumologfile/e1Detector_L10017_0_271.xml"/>
    <e1Detector id="e1Detector_L10017_1_in" lane="L10017_1" pos="98.68" freq="900.00" file="/home/mild/sumologfile/e1Detector_L10017_1_275.xml"/>
    <e1Detector id="e1Detector_L10017_1_out" lane="L10017_1" pos="243.68" freq="900.00" file="/home/mild/sumologfile/e1Detector_L10017_1_272.xml"/>
    <e1Detector id="e1Detector_L10017_2_in" lane="L10017_2" pos="98.68" freq="900.00" file="/home/mild/sumologfile/e1Detector_L10017_2_276.xml"/>
    <e1Detector id="e1Detector_L10017_2_out" lane="L10017_2" pos="243.68" freq="900.00" file="/home/mild/sumologfile/e1Detector_L10017_2_273.xml"/>
    <e1Detector id="e1Detector_L10018_0_in" lane="L10018_0" pos="259.96" freq="900.00" file="/home/mild/sumologfile/e1Detector_L10018_0_311.xml"/>
    <e1Detector id="e1Detector_L10018_1_in" lane="L10018_1" pos="259.96" freq="900.00" file="/home/mild/sumologfile/e1Detector_L10018_1_312.xml"/>
    <e1Detector id="e1Detector_L10018_2_in" lane="L10018_2" pos="259.96" freq="900.00" file="/home/mild/sumologfile/e1Detector_L10018_2_313.xml"/>
    <e1Detector id="e1Detector_L10032_0_in" lane="L10032_0" pos="9.63" freq="900.00" file="/home/mild/sumologfile/e1Detector_L10032_0_226.xml"/>
    <e1Detector id="e1Detector_L10032_0_out" lane="L10032_0" pos="154.63" freq="900.00" file="/home/mild/sumologfile/e1Detector_L10032_0_222.xml"/>
    <e1Detector id="e1Detector_L10032_1_in" lane="L10032_1" pos="9.63" freq="900.00" file="/home/mild/sumologfile/e1Detector_L10032_1_225.xml"/>
    <e1Detector id="e1Detector_L10032_1_out" lane="L10032_1" pos="154.63" freq="900.00" file="/home/mild/sumologfile/e1Detector_L10032_1_221.xml"/>
    <e1Detector id="e1Detector_L10032_2_in" lane="L10032_2" pos="9.63" freq="900.00" file="/home/mild/sumologfile/e1Detector_L10032_2_224.xml"/>
    <e1Detector id="e1Detector_L10032_2_out" lane="L10032_2" pos="154.63" freq="900.00" file="/home/mild/sumologfile/e1Detector_L10032_2_220.xml"/>
    <e1Detector id="e1Detector_L10032_3_in" lane="L10032_3" pos="9.63" freq="900.00" file="/home/mild/sumologfile/e1Detector_L10032_3_223.xml"/>
    <e1Detector id="e1Detector_L10032_3_out" lane="L10032_3" pos="154.63" freq="900.00" file="/home/mild/sumologfile/e1Detector_L10032_3_219.xml"/>
    <e1Detector id="e1Detector_L10100_0_in" lane="L10100_0" pos="46.01" freq="900.00" file="/home/mild/sumologfile/e1Detector_L10100_0_110.xml"/>
    <e1Detector id="e1Detector_L10100_1_in" lane="L10100_1" pos="46.01" freq="900.00" file="/home/mild/sumologfile/e1Detector_L10100_1_111.xml"/>
    <e1Detector id="e1Detector_L10100_2_in" lane="L10100_2" pos="46.01" freq="900.00" file="/home/mild/sumologfile/e1Detector_L10100_2_112.xml"/>
    <e1Detector id="e1Detector_L10100_3_in" lane="L10100_3" pos="46.01" freq="900.00" file="/home/mild/sumologfile/e1Detector_L10100_3_113.xml"/>
    <e1Detector id="e1Detector_L10114_0_in" lane="L10114_0" pos="5.00" freq="900.00" file="/home/mild/sumologfile/e1Detector_L10114_0_322.xml"/>
    <e1Detector id="e1Detector_L10114_1_in" lane="L10114_1" pos="5.00" freq="900.00" file="/home/mild/sumologfile/e1Detector_L10114_1_321.xml"/>
    <e1Detector id="e1Detector_L10114_2_in" lane="L10114_2" pos="5.00" freq="900.00" file="/home/mild/sumologfile/e1Detector_L10114_2_320.xml"/>
    <e1Detector id="e1Detector_L10114_3_in" lane="L10114_3" pos="5.00" freq="900.00" file="/home/mild/sumologfile/e1Detector_L10114_3_319.xml"/>
    <e1Detector id="e1Detector_L10130_0_in" lane="L10130_0" pos="5.00" freq="900.00" file="/home/mild/sumologfile/e1Detector_L10130_0_267.xml"/>
    <e1Detector id="e1Detector_L10130_1_in" lane="L10130_1" pos="5.00" freq="900.00" file="/home/mild/sumologfile/e1Detector_L10130_1_266.xml"/>
    <e1Detector id="e1Detector_L10130_2_in" lane="L10130_2" pos="5.00" freq="900.00" file="/home/mild/sumologfile/e1Detector_L10130_2_265.xml"/>
    <e1Detector id="e1Detector_L10130_3_in" lane="L10130_3" pos="5.00" freq="900.00" file="/home/mild/sumologfile/e1Detector_L10130_3_264.xml"/>
    <e1Detector id="e1Detector_L10149#1_0_in" lane="L10149#1_0" pos="5.00" freq="900.00" file="/home/mild/sumologfile/e1Detector_L10149#1_0_187.xml"/>
    <e1Detector id="e1Detector_L10149#1_1_in" lane="L10149#1_1" pos="5.00" freq="900.00" file="/home/mild/sumologfile/e1Detector_L10149#1_1_188.xml"/>
    <e1Detector id="e1Detector_L10149#2_0_out" lane="L10149#2_0" pos="3.68" freq="900.00" file="/home/mild/sumologfile/e1Detector_L10149#2_0_189.xml"/>
    <e1Detector id="e1Detector_L10149#2_1_out" lane="L10149#2_1" pos="3.68" freq="900.00" file="/home/mild/sumologfile/e1Detector_L10149#2_1_190.xml"/>
    <e1Detector id="e1Detector_L10149#2_2_out" lane="L10149#2_2" pos="3.68" freq="900.00" file="/home/mild/sumologfile/e1Detector_L10149#2_2_191.xml"/>
    <e1Detector id="e1Detector_L10150_0_in" lane="L10150_0" pos="5.00" freq="900.00" file="/home/mild/sumologfile/e1Detector_L10150_0_132.xml"/>
    <e1Detector id="e1Detector_L10150_1_in" lane="L10150_1" pos="5.00" freq="900.00" file="/home/mild/sumologfile/e1Detector_L10150_1_133.xml"/>
    <e1Detector id="e1Detector_L10150_2_in" lane="L10150_2" pos="5.00" freq="900.00" file="/home/mild/sumologfile/e1Detector_L10150_2_134.xml"/>
    <e1Detector id="e1Detector_L10150_3_in" lane="L10150_3" pos="5.00" freq="900.00" file="/home/mild/sumologfile/e1Detector_L10150_3_135.xml"/>
    <e1Detector id="e1Detector_L10168_0_out" lane="L10168_0" pos="5.00" freq="900.00" file="/home/mild/sumologfile/e1Detector_L10168_0_292.xml"/>
    <e1Detector id="e1Detector_L10168_1_in" lane="L10168_1" pos="5.00" freq="900.00" file="/home/mild/sumologfile/e1Detector_L10168_1_293.xml"/>
    <e1Detector id="e1Detector_L10168_2_in" lane="L10168_2" pos="5.00" freq="900.00" file="/home/mild/sumologfile/e1Detector_L10168_2_294.xml"/>
    <e1Detector id="e1Detector_L10172_0_in" lane="L10172_0" pos="5.00" freq="900.00" file="/home/mild/sumologfile/e1Detector_L10172_0_235.xml"/>
    <e1Detector id="e1Detector_L10172_1_in" lane="L10172_1" pos="5.00" freq="900.00" file="/home/mild/sumologfile/e1Detector_L10172_1_234.xml"/>
    <e1Detector id="e1Detector_L10172_2_in" lane="L10172_2" pos="5.00" freq="900.00" file="/home/mild/sumologfile/e1Detector_L10172_2_233.xml"/>
    <e1Detector id="e1Detector_L10186_0_in" lane="L10186_0" pos="65.73" freq="900.00" file="/home/mild/sumologfile/e1Detector_L10186_0_123.xml"/>
    <e1Detector id="e1Detector_L10186_0_out" lane="L10186_0" pos="210.73" freq="900.00" file="/home/mild/sumologfile/e1Detector_L10186_0_119.xml"/>
    <e1Detector id="e1Detector_L10186_1_in" lane="L10186_1" pos="65.73" freq="900.00" file="/home/mild/sumologfile/e1Detector_L10186_1_122.xml"/>
    <e1Detector id="e1Detector_L10186_1_out" lane="L10186_1" pos="210.73" freq="900.00" file="/home/mild/sumologfile/e1Detector_L10186_1_118.xml"/>
    <e1Detector id="e1Detector_L10187_0_in" lane="L10187_0" pos="2.00" freq="900.00" file="/home/mild/sumologfile/e1Detector_L10187_0_329.xml"/>
    <e1Detector id="e1Detector_L10187_1_in" lane="L10187_1" pos="2.00" freq="900.00" file="/home/mild/sumologfile/e1Detector_L10187_1_330.xml"/>
    <e1Detector id="e1Detector_L10187_2_in" lane="L10187_2" pos="2.00" freq="900.00" file="/home/mild/sumologfile/e1Detector_L10187_2_331.xml"/>
    <e1Detector id="e1Detector_L10189_0_in" lane="L10189_0" pos="17.05" freq="900.00" file="/home/mild/sumologfile/e1Detector_L10189_0_128.xml"/>
    <e1Detector id="e1Detector_L10189_0_out" lane="L10189_0" pos="162.05" freq="900.00" file="/home/mild/sumologfile/e1Detector_L10189_0_124.xml"/>
    <e1Detector id="e1Detector_L10189_1_in" lane="L10189_1" pos="17.05" freq="900.00" file="/home/mild/sumologfile/e1Detector_L10189_1_129.xml"/>
    <e1Detector id="e1Detector_L10189_1_out" lane="L10189_1" pos="162.05" freq="900.00" file="/home/mild/sumologfile/e1Detector_L10189_1_125.xml"/>
    <e1Detector id="e1Detector_L10189_2_in" lane="L10189_2" pos="17.05" freq="900.00" file="/home/mild/sumologfile/e1Detector_L10189_2_130.xml"/>
    <e1Detector id="e1Detector_L10189_2_out" lane="L10189_2" pos="162.05" freq="900.00" file="/home/mild/sumologfile/e1Detector_L10189_2_126.xml"/>
    <e1Detector id="e1Detector_L10189_3_in" lane="L10189_3" pos="17.05" freq="900.00" file="/home/mild/sumologfile/e1Detector_L10189_3_131.xml"/>
    <e1Detector id="e1Detector_L10189_3_out" lane="L10189_3" pos="162.05" freq="900.00" file="/home/mild/sumologfile/e1Detector_L10189_3_127.xml"/>
    <e1Detector id="e1Detector_L10195_0_in" lane="L10195_0" pos="5.00" freq="900.00" file="/home/mild/sumologfile/e1Detector_L10195_0_5.xml"/>
    <e1Detector id="e1Detector_L10195_1_in" lane="L10195_1" pos="5.00" freq="900.00" file="/home/mild/sumologfile/e1Detector_L10195_1_4.xml"/>
    <e1Detector id="e1Detector_L10195_2_in" lane="L10195_2" pos="5.00" freq="900.00" file="/home/mild/sumologfile/e1Detector_L10195_2_3.xml"/>
    <e1Detector id="e1Detector_L10199_0_in" lane="L10199_0" pos="145.83" freq="900.00" file="/home/mild/sumologfile/e1Detector_L10199_0_287.xml"/>
    <e1Detector id="e1Detector_L10199_0_out" lane="L10199_0" pos="290.83" freq="900.00" file="/home/mild/sumologfile/e1Detector_L10199_0_282.xml"/>
    <e1Detector id="e1Detector_L10199_1_in" lane="L10199_1" pos="145.83" freq="900.00" file="/home/mild/sumologfile/e1Detector_L10199_1_288.xml"/>
    <e1Detector id="e1Detector_L10199_1_out" lane="L10199_1" pos="290.83" freq="900.00" file="/home/mild/sumologfile/e1Detector_L10199_1_283.xml"/>
    <e1Detector id="e1Detector_L10199_2_in" lane="L10199_2" pos="145.83" freq="900.00" file="/home/mild/sumologfile/e1Detector_L10199_2_289.xml"/>
    <e1Detector id="e1Detector_L10199_2_out" lane="L10199_2" pos="290.83" freq="900.00" file="/home/mild/sumologfile/e1Detector_L10199_2_284.xml"/>
    <e1Detector id="e1Detector_L10199_3_in" lane="L10199_3" pos="145.83" freq="900.00" file="/home/mild/sumologfile/e1Detector_L10199_3_290.xml"/>
    <e1Detector id="e1Detector_L10199_3_out" lane="L10199_3" pos="290.83" freq="900.00" file="/home/mild/sumologfile/e1Detector_L10199_3_285.xml"/>
    <e1Detector id="e1Detector_L10199_4_in" lane="L10199_4" pos="145.83" freq="900.00" file="/home/mild/sumologfile/e1Detector_L10199_4_291.xml"/>
    <e1Detector id="e1Detector_L10199_4_out" lane="L10199_4" pos="290.83" freq="900.00" file="/home/mild/sumologfile/e1Detector_L10199_4_286.xml"/>
    <e1Detector id="e1Detector_L10216_0_in" lane="L10216_0" pos="5.00" freq="900.00" file="/home/mild/sumologfile/e1Detector_L10216_0_216.xml"/>
    <e1Detector id="e1Detector_L10216_1_in" lane="L10216_1" pos="5.00" freq="900.00" file="/home/mild/sumologfile/e1Detector_L10216_1_217.xml"/>
    <e1Detector id="e1Detector_L10216_2_in" lane="L10216_2" pos="5.00" freq="900.00" file="/home/mild/sumologfile/e1Detector_L10216_2_218.xml"/>
    <e1Detector id="e1Detector_L10217_0_in" lane="L10217_0" pos="232.79" freq="900.00" file="/home/mild/sumologfile/e1Detector_L10217_0_105.xml"/>
    <e1Detector id="e1Detector_L10217_0_out" lane="L10217_0" pos="377.79" freq="900.00" file="/home/mild/sumologfile/e1Detector_L10217_0_83.xml"/>
    <e1Detector id="e1Detector_L10217_1_in" lane="L10217_1" pos="232.79" freq="900.00" file="/home/mild/sumologfile/e1Detector_L10217_1_104.xml"/>
    <e1Detector id="e1Detector_L10217_1_out" lane="L10217_1" pos="377.79" freq="900.00" file="/home/mild/sumologfile/e1Detector_L10217_1_82.xml"/>
    <e1Detector id="e1Detector_L10217_2_in" lane="L10217_2" pos="232.79" freq="900.00" file="/home/mild/sumologfile/e1Detector_L10217_2_103.xml"/>
    <e1Detector id="e1Detector_L10217_2_out" lane="L10217_2" pos="377.79" freq="900.00" file="/home/mild/sumologfile/e1Detector_L10217_2_81.xml"/>
    <e1Detector id="e1Detector_L10217_3_in" lane="L10217_3" pos="232.79" freq="900.00" file="/home/mild/sumologfile/e1Detector_L10217_3_102.xml"/>
    <e1Detector id="e1Detector_L10217_3_out" lane="L10217_3" pos="377.79" freq="900.00" file="/home/mild/sumologfile/e1Detector_L10217_3_80.xml"/>
    <e1Detector id="e1Detector_L10217_4_in" lane="L10217_4" pos="232.79" freq="900.00" file="/home/mild/sumologfile/e1Detector_L10217_4_101.xml"/>
    <e1Detector id="e1Detector_L10217_4_out" lane="L10217_4" pos="377.79" freq="900.00" file="/home/mild/sumologfile/e1Detector_L10217_4_79.xml"/>
    <e1Detector id="e1Detector_L10219_0_in" lane="L10219_0" pos="51.97" freq="900.00" file="/home/mild/sumologfile/e1Detector_L10219_0_230.xml"/>
    <e1Detector id="e1Detector_L10219_0_out" lane="L10219_0" pos="196.97" freq="900.00" file="/home/mild/sumologfile/e1Detector_L10219_0_227.xml"/>
    <e1Detector id="e1Detector_L10219_1_in" lane="L10219_1" pos="51.97" freq="900.00" file="/home/mild/sumologfile/e1Detector_L10219_1_231.xml"/>
    <e1Detector id="e1Detector_L10219_1_out" lane="L10219_1" pos="196.97" freq="900.00" file="/home/mild/sumologfile/e1Detector_L10219_1_228.xml"/>
    <e1Detector id="e1Detector_L10219_2_in" lane="L10219_2" pos="51.97" freq="900.00" file="/home/mild/sumologfile/e1Detector_L10219_2_232.xml"/>
    <e1Detector id="e1Detector_L10219_2_out" lane="L10219_2" pos="196.97" freq="900.00" file="/home/mild/sumologfile/e1Detector_L10219_2_229.xml"/>
    <e1Detector id="e1Detector_L10223_0_out" lane="L228_0" pos="5.00" freq="900.00" file="/home/mild/sumologfile/e1Detector_L228_0_328.xml"/>
    <e1Detector id="e1Detector_L10223_1_out" lane="L10223_0" pos="4.94" freq="900.00" file="/home/mild/sumologfile/e1Detector_L10223_0_323.xml"/>
    <e1Detector id="e1Detector_L10223_2_out" lane="L10223_1" pos="4.94" freq="900.00" file="/home/mild/sumologfile/e1Detector_L10223_1_324.xml"/>
    <e1Detector id="e1Detector_L10223_3_out" lane="L10223_2" pos="4.94" freq="900.00" file="/home/mild/sumologfile/e1Detector_L10223_2_325.xml"/>
    <e1Detector id="e1Detector_L10223_4_out" lane="L10223_3" pos="4.94" freq="900.00" file="/home/mild/sumologfile/e1Detector_L10223_3_326.xml"/>
    <e1Detector id="e1Detector_L10223_5_out" lane="L10223_4" pos="4.94" freq="900.00" file="/home/mild/sumologfile/e1Detector_L10223_4_327.xml"/>
    <e1Detector id="e1Detector_L10223_6_out" lane="L10015_0" pos="5.00" freq="900.00" file="/home/mild/sumologfile/e1Detector_L10015_0_314.xml"/>
    <e1Detector id="e1Detector_L119_0_in" lane="L119_0" pos="2.00" freq="900.00" file="/home/mild/sumologfile/e1Detector_L119_0_311.xml"/>
    <e1Detector id="e1Detector_L119_1_in" lane="L119_1" pos="2.00" freq="900.00" file="/home/mild/sumologfile/e1Detector_L119_1_312.xml"/>
    <e1Detector id="e1Detector_L119_2_in" lane="L119_2" pos="2.00" freq="900.00" file="/home/mild/sumologfile/e1Detector_L119_2_313.xml"/>
    <e1Detector id="e1Detector_L126_0_in" lane="L126_0" pos="5.00" freq="900.00" file="/home/mild/sumologfile/e1Detector_L126_0_353.xml"/>
    <e1Detector id="e1Detector_L126_1_in" lane="L126_1" pos="5.00" freq="900.00" file="/home/mild/sumologfile/e1Detector_L126_1_352.xml"/>
    <e1Detector id="e1Detector_L126_2_in" lane="L126_2" pos="5.00" freq="900.00" file="/home/mild/sumologfile/e1Detector_L126_2_351.xml"/>
    <e1Detector id="e1Detector_L126_3_in" lane="L126_3" pos="5.00" freq="900.00" file="/home/mild/sumologfile/e1Detector_L126_3_350.xml"/>
    <e1Detector id="e1Detector_L132_0_in" lane="L132_0" pos="5.00" freq="900.00" file="/home/mild/sumologfile/e1Detector_L132_0_215.xml"/>
    <e1Detector id="e1Detector_L132_0_out" lane="L132_0" pos="103.45" freq="900.00" file="/home/mild/sumologfile/e1Detector_L132_0_196.xml"/>
    <e1Detector id="e1Detector_L132_1_in" lane="L132_1" pos="5.00" freq="900.00" file="/home/mild/sumologfile/e1Detector_L132_1_214.xml"/>
    <e1Detector id="e1Detector_L132_1_out" lane="L132_1" pos="103.45" freq="900.00" file="/home/mild/sumologfile/e1Detector_L132_1_195.xml"/>
    <e1Detector id="e1Detector_L132_2_in" lane="L132_2" pos="5.00" freq="900.00" file="/home/mild/sumologfile/e1Detector_L132_2_213.xml"/>
    <e1Detector id="e1Detector_L132_2_out" lane="L132_2" pos="103.45" freq="900.00" file="/home/mild/sumologfile/e1Detector_L132_2_194.xml"/>
    <e1Detector id="e1Detector_L133.25_0_in" lane="L133.25_0" pos="1.00" freq="900.00" file="/home/mild/sumologfile/e1Detector_L133.25_0_206.xml"/>
    <e1Detector id="e1Detector_L133.25_0_out" lane="L133.25_0" pos="108.71" freq="900.00" file="/home/mild/sumologfile/e1Detector_L133.25_0_242.xml"/>
    <e1Detector id="e1Detector_L133.25_1_in" lane="L133.25_1" pos="1.00" freq="900.00" file="/home/mild/sumologfile/e1Detector_L133.25_1_207.xml"/>
    <e1Detector id="e1Detector_L133.25_1_out" lane="L133.25_1" pos="108.71" freq="900.00" file="/home/mild/sumologfile/e1Detector_L133.25_1_243.xml"/>
    <e1Detector id="e1Detector_L133.25_2_in" lane="L133.25_2" pos="1.00" freq="900.00" file="/home/mild/sumologfile/e1Detector_L133.25_2_208.xml"/>
    <e1Detector id="e1Detector_L133.25_2_out" lane="L133.25_2" pos="108.71" freq="900.00" file="/home/mild/sumologfile/e1Detector_L133.25_2_244.xml"/>
    <e1Detector id="e1Detector_L133.25_3_in" lane="L133.25_3" pos="1.00" freq="900.00" file="/home/mild/sumologfile/e1Detector_L133.25_3_209.xml"/>
    <e1Detector id="e1Detector_L133.25_3_out" lane="L133.25_3" pos="108.71" freq="900.00" file="/home/mild/sumologfile/e1Detector_L133.25_3_245.xml"/>
    <e1Detector id="e1Detector_L134_0_in" lane="L134_0" pos="5.00" freq="900.00" file="/home/mild/sumologfile/e1Detector_L134_0_241.xml"/>
    <e1Detector id="e1Detector_L134_0_out" lane="L134_0" pos="116.75" freq="900.00" file="/home/mild/sumologfile/e1Detector_L134_0_238.xml"/>
    <e1Detector id="e1Detector_L134_1_in" lane="L134_1" pos="5.00" freq="900.00" file="/home/mild/sumologfile/e1Detector_L134_1_240.xml"/>
    <e1Detector id="e1Detector_L134_1_out" lane="L134_1" pos="116.75" freq="900.00" file="/home/mild/sumologfile/e1Detector_L134_1_237.xml"/>
    <e1Detector id="e1Detector_L134_2_in" lane="L134_2" pos="5.00" freq="900.00" file="/home/mild/sumologfile/e1Detector_L134_2_239.xml"/>
    <e1Detector id="e1Detector_L134_2_out" lane="L134_2" pos="116.75" freq="900.00" file="/home/mild/sumologfile/e1Detector_L134_2_236.xml"/>
    <e1Detector id="e1Detector_L135_0_in" lane="L135_0" pos="5.00" freq="900.00" file="/home/mild/sumologfile/e1Detector_L135_0_255.xml"/>
    <e1Detector id="e1Detector_L135_1_in" lane="L135_1" pos="5.00" freq="900.00" file="/home/mild/sumologfile/e1Detector_L135_1_256.xml"/>
    <e1Detector id="e1Detector_L135_2_in" lane="L135_2" pos="5.00" freq="900.00" file="/home/mild/sumologfile/e1Detector_L135_2_257.xml"/>
    <e1Detector id="e1Detector_L138_0_in" lane="L138_0" pos="5.00" freq="900.00" file="/home/mild/sumologfile/e1Detector_L138_0_197.xml"/>
    <e1Detector id="e1Detector_L138_0_out" lane="L138_0" pos="102.63" freq="900.00" file="/home/mild/sumologfile/e1Detector_L138_0_210.xml"/>
    <e1Detector id="e1Detector_L138_1_in" lane="L138_1" pos="5.00" freq="900.00" file="/home/mild/sumologfile/e1Detector_L138_1_198.xml"/>
    <e1Detector id="e1Detector_L138_1_out" lane="L138_1" pos="102.63" freq="900.00" file="/home/mild/sumologfile/e1Detector_L138_1_211.xml"/>
    <e1Detector id="e1Detector_L138_2_in" lane="L138_2" pos="5.00" freq="900.00" file="/home/mild/sumologfile/e1Detector_L138_2_199.xml"/>
    <e1Detector id="e1Detector_L138_2_out" lane="L138_2" pos="102.63" freq="900.00" file="/home/mild/sumologfile/e1Detector_L138_2_212.xml"/>
    <e1Detector id="e1Detector_L143_0_in" lane="L143_0" pos="91.90" freq="900.00" file="/home/mild/sumologfile/e1Detector_L143_0_6.xml"/>
    <e1Detector id="e1Detector_L143_0_out" lane="L143_0" pos="236.90" freq="900.00" file="/home/mild/sumologfile/e1Detector_L143_0_0.xml"/>
    <e1Detector id="e1Detector_L143_1_in" lane="L143_1" pos="91.90" freq="900.00" file="/home/mild/sumologfile/e1Detector_L143_1_7.xml"/>
    <e1Detector id="e1Detector_L143_1_out" lane="L143_1" pos="236.90" freq="900.00" file="/home/mild/sumologfile/e1Detector_L143_1_1.xml"/>
    <e1Detector id="e1Detector_L143_2_in" lane="L143_2" pos="91.90" freq="900.00" file="/home/mild/sumologfile/e1Detector_L143_2_8.xml"/>
    <e1Detector id="e1Detector_L143_2_out" lane="L143_2" pos="236.90" freq="900.00" file="/home/mild/sumologfile/e1Detector_L143_2_2.xml"/>
    <e1Detector id="e1Detector_L145_0_in" lane="L145_0" pos="5.00" freq="900.00" file="/home/mild/sumologfile/e1Detector_L145_0_31.xml"/>
    <e1Detector id="e1Detector_L145_1_in" lane="L145_1" pos="5.00" freq="900.00" file="/home/mild/sumologfile/e1Detector_L145_1_30.xml"/>
    <e1Detector id="e1Detector_L145_2_in" lane="L145_2" pos="5.00" freq="900.00" file="/home/mild/sumologfile/e1Detector_L145_2_29.xml"/>
    <e1Detector id="e1Detector_L148_0_in" lane="L148_0" pos="108.64" freq="900.00" file="/home/mild/sumologfile/e1Detector_L148_0_52.xml"/>
    <e1Detector id="e1Detector_L148_0_out" lane="L148_0" pos="253.64" freq="900.00" file="/home/mild/sumologfile/e1Detector_L148_0_26.xml"/>
    <e1Detector id="e1Detector_L148_1_in" lane="L148_1" pos="108.64" freq="900.00" file="/home/mild/sumologfile/e1Detector_L148_1_51.xml"/>
    <e1Detector id="e1Detector_L148_1_out" lane="L148_1" pos="253.64" freq="900.00" file="/home/mild/sumologfile/e1Detector_L148_1_27.xml"/>
    <e1Detector id="e1Detector_L148_2_in" lane="L148_2" pos="108.64" freq="900.00" file="/home/mild/sumologfile/e1Detector_L148_2_50.xml"/>
    <e1Detector id="e1Detector_L148_2_out" lane="L148_2" pos="253.64" freq="900.00" file="/home/mild/sumologfile/e1Detector_L148_2_28.xml"/>
    <e1Detector id="e1Detector_L154_0_in" lane="L154_0" pos="5.00" freq="900.00" file="/home/mild/sumologfile/e1Detector_L154_0_270.xml"/>
    <e1Detector id="e1Detector_L154_1_in" lane="L154_1" pos="5.00" freq="900.00" file="/home/mild/sumologfile/e1Detector_L154_1_269.xml"/>
    <e1Detector id="e1Detector_L154_2_in" lane="L154_2" pos="5.00" freq="900.00" file="/home/mild/sumologfile/e1Detector_L154_2_268.xml"/>
    <e1Detector id="e1Detector_L176_0_out" lane="L257_0" pos="11.14" freq="900.00" file="/home/mild/sumologfile/e1Detector_L257_0_310.xml"/>
    <e1Detector id="e1Detector_L176_1_out" lane="L176_0" pos="7.87" freq="900.00" file="/home/mild/sumologfile/e1Detector_L176_0_298.xml"/>
    <e1Detector id="e1Detector_L176_2_out" lane="L176_1" pos="7.87" freq="900.00" file="/home/mild/sumologfile/e1Detector_L176_1_297.xml"/>
    <e1Detector id="e1Detector_L176_3_out" lane="L176_2" pos="7.87" freq="900.00" file="/home/mild/sumologfile/e1Detector_L176_2_296.xml"/>
    <e1Detector id="e1Detector_L176_4_out" lane="L176_3" pos="7.87" freq="900.00" file="/home/mild/sumologfile/e1Detector_L176_3_295.xml"/>
    <e1Detector id="e1Detector_L184_0_in" lane="L184_0" pos="25.24" freq="900.00" file="/home/mild/sumologfile/e1Detector_L184_0_362.xml"/>
    <e1Detector id="e1Detector_L184_1_in" lane="L184_1" pos="25.24" freq="900.00" file="/home/mild/sumologfile/e1Detector_L184_1_363.xml"/>
    <e1Detector id="e1Detector_L184_2_in" lane="L184_2" pos="25.24" freq="900.00" file="/home/mild/sumologfile/e1Detector_L184_2_364.xml"/>
    <e1Detector id="e1Detector_L197#1_0_in" lane="L197#1_0" pos="128.59" freq="900.00" file="/home/mild/sumologfile/e1Detector_L197#1_0_144.xml"/>
    <e1Detector id="e1Detector_L197#1_1_in" lane="L197#1_1" pos="128.59" freq="900.00" file="/home/mild/sumologfile/e1Detector_L197#1_1_143.xml"/>
    <e1Detector id="e1Detector_L197#1_2_in" lane="L197#1_2" pos="128.59" freq="900.00" file="/home/mild/sumologfile/e1Detector_L197#1_2_142.xml"/>
    <e1Detector id="e1Detector_L197#1_3_in" lane="L197#1_3" pos="128.59" freq="900.00" file="/home/mild/sumologfile/e1Detector_L197#1_3_141.xml"/>
    <e1Detector id="e1Detector_L197#2_0_out" lane="L197#2_0" pos="59.15" freq="900.00" file="/home/mild/sumologfile/e1Detector_L197#2_0_140.xml"/>
    <e1Detector id="e1Detector_L197#2_1_out" lane="L197#2_1" pos="59.15" freq="900.00" file="/home/mild/sumologfile/e1Detector_L197#2_1_139.xml"/>
    <e1Detector id="e1Detector_L197#2_2_out" lane="L197#2_2" pos="59.15" freq="900.00" file="/home/mild/sumologfile/e1Detector_L197#2_2_138.xml"/>
    <e1Detector id="e1Detector_L197#2_3_out" lane="L197#2_3" pos="59.15" freq="900.00" file="/home/mild/sumologfile/e1Detector_L197#2_3_137.xml"/>
    <e1Detector id="e1Detector_L197#2_4_out" lane="L197#2_4" pos="59.15" freq="900.00" file="/home/mild/sumologfile/e1Detector_L197#2_4_136.xml"/>
    <e1Detector id="e1Detector_L20149_0_in" lane="L20149_0" pos="5.00" freq="900.00" file="/home/mild/sumologfile/e1Detector_L20149_0_193.xml"/>
    <e1Detector id="e1Detector_L20149_1_in" lane="L20149_1" pos="5.00" freq="900.00" file="/home/mild/sumologfile/e1Detector_L20149_1_192.xml"/>
    <e1Detector id="e1Detector_L20186_0_in" lane="L20186_0" pos="5.00" freq="900.00" file="/home/mild/sumologfile/e1Detector_L20186_0_121.xml"/>
    <e1Detector id="e1Detector_L20186_1_in" lane="L20186_1" pos="5.00" freq="900.00" file="/home/mild/sumologfile/e1Detector_L20186_1_120.xml"/>
    <e1Detector id="e1Detector_L210_0_in" lane="L210_0" pos="2.00" freq="900.00" file="/home/mild/sumologfile/e1Detector_L210_0_347.xml"/>
    <e1Detector id="e1Detector_L210_1_in" lane="L210_1" pos="2.00" freq="900.00" file="/home/mild/sumologfile/e1Detector_L210_1_348.xml"/>
    <e1Detector id="e1Detector_L210_2_in" lane="L210_2" pos="2.00" freq="900.00" file="/home/mild/sumologfile/e1Detector_L210_2_349.xml"/>
    <e1Detector id="e1Detector_L214_0_in" lane="L214_0" pos="36.42" freq="900.00" file="/home/mild/sumologfile/e1Detector_L214_0_357.xml"/>
    <e1Detector id="e1Detector_L214_1_in" lane="L214_1" pos="36.42" freq="900.00" file="/home/mild/sumologfile/e1Detector_L214_1_358.xml"/>
    <e1Detector id="e1Detector_L214_2_in" lane="L214_2" pos="36.42" freq="900.00" file="/home/mild/sumologfile/e1Detector_L214_2_359.xml"/>
    <e1Detector id="e1Detector_L214_3_in" lane="L214_3" pos="36.42" freq="900.00" file="/home/mild/sumologfile/e1Detector_L214_3_360.xml"/>
    <e1Detector id="e1Detector_L214_4_in" lane="L214_4" pos="36.42" freq="900.00" file="/home/mild/sumologfile/e1Detector_L214_4_361.xml"/>
    <e1Detector id="e1Detector_L21_0_in" lane="L21_0" pos="5.00" freq="900.00" file="/home/mild/sumologfile/e1Detector_L21_0_174.xml"/>
    <e1Detector id="e1Detector_L220_0_out" lane="L220_0" pos="121.99" freq="900.00" file="/home/mild/sumologfile/e1Detector_L220_0_53.xml"/>
    <e1Detector id="e1Detector_L220_1_out" lane="L220_1" pos="121.99" freq="900.00" file="/home/mild/sumologfile/e1Detector_L220_1_54.xml"/>
    <e1Detector id="e1Detector_L220_2_out" lane="L220_2" pos="121.99" freq="900.00" file="/home/mild/sumologfile/e1Detector_L220_2_55.xml"/>
    <e1Detector id="e1Detector_L220_3_out" lane="L220_3" pos="121.99" freq="900.00" file="/home/mild/sumologfile/e1Detector_L220_3_56.xml"/>
    <e1Detector id="e1Detector_L220_4_out" lane="L220_4" pos="121.99" freq="900.00" file="/home/mild/sumologfile/e1Detector_L220_4_57.xml"/>
    <e1Detector id="e1Detector_L230_0_in" lane="L230_0" pos="15.46" freq="900.00" file="/home/mild/sumologfile/e1Detector_L230_0_99.xml"/>
    <e1Detector id="e1Detector_L230_1_in" lane="L230_1" pos="15.46" freq="900.00" file="/home/mild/sumologfile/e1Detector_L230_1_98.xml"/>
    <e1Detector id="e1Detector_L230_2_in" lane="L230_2" pos="15.46" freq="900.00" file="/home/mild/sumologfile/e1Detector_L230_2_97.xml"/>
    <e1Detector id="e1Detector_L230_3_in" lane="L230_3" pos="15.46" freq="900.00" file="/home/mild/sumologfile/e1Detector_L230_3_96.xml"/>
    <e1Detector id="e1Detector_L237_0_in" lane="L237_0" pos="5.00" freq="900.00" file="/home/mild/sumologfile/e1Detector_L237_0_107.xml"/>
    <e1Detector id="e1Detector_L237_1_in" lane="L237_1" pos="5.00" freq="900.00" file="/home/mild/sumologfile/e1Detector_L237_1_106.xml"/>
    <e1Detector id="e1Detector_L237_2_in" lane="L237_2" pos="5.00" freq="900.00" file="/home/mild/sumologfile/e1Detector_L237_2_105.xml"/>
    <e1Detector id="e1Detector_L237_3_in" lane="L237_3" pos="5.00" freq="900.00" file="/home/mild/sumologfile/e1Detector_L237_3_104.xml"/>
    <e1Detector id="e1Detector_L239_0_out" lane="L239_0" pos="28.07" freq="900.00" file="/home/mild/sumologfile/e1Detector_L239_0_161.xml"/>
    <e1Detector id="e1Detector_L239_1_out" lane="L239_1" pos="28.07" freq="900.00" file="/home/mild/sumologfile/e1Detector_L239_1_162.xml"/>
    <e1Detector id="e1Detector_L239_2_out" lane="L239_2" pos="28.07" freq="900.00" file="/home/mild/sumologfile/e1Detector_L239_2_163.xml"/>
    <e1Detector id="e1Detector_L239_3_out" lane="L239_3" pos="28.07" freq="900.00" file="/home/mild/sumologfile/e1Detector_L239_3_164.xml"/>