<?xml version="1.0" encoding="UTF-8"?>

<!-- generated on 12/9/2561 12:37:48 by Netedit Version 0.30.0
<?xml version="1.0" encoding="UTF-8"?>

<configuration xmlns:xsi="http://www.w3.org/2001/XMLSchema-instance" xsi:noNamespaceSchemaLocation="http://sumo.dlr.de/xsd/netconvertConfiguration.xsd">

    <input>
        <sumo-net-file value="C:\Users\user\Dropbox\[CSRL]%20Traffic%20Control%20Research\sumo\scenario_1\network.net.xml"/>
    </input>

    <output>
        <output-file value="C:\Users\user\Dropbox\[CSRL]%20Traffic%20Control%20Research\sumo\scenario_1\network.net.xml"/>
    </output>

    <processing>
        <no-turnarounds value="true"/>
        <offset.disable-normalization value="true"/>
        <lefthand value="true"/>
        <junctions.corner-detail value="0"/>
        <rectangular-lane-cut value="false"/>
    </processing>

</configuration>
-->

<net version="0.27" lefthand="true" xmlns:xsi="http://www.w3.org/2001/XMLSchema-instance" xsi:noNamespaceSchemaLocation="http://sumo.dlr.de/xsd/net_file.xsd">

    <location netOffset="0.00,-0.00" convBoundary="-200.05,-100.11,400.11,300.11" origBoundary="-10000000000.00,-10000000000.00,10000000000.00,10000000000.00" projParameter="!"/>

    <edge id=":J1_0" function="internal">
        <lane id=":J1_0_0" index="0" speed="13.89" length="7.66" shape="-11.55,88.65 -11.74,90.01 -12.33,90.97 -13.29,91.56 -14.65,91.75"/>
        <lane id=":J1_0_1" index="1" speed="13.89" length="7.66" shape="-8.25,88.65 -8.65,91.45 -9.85,93.45 -11.85,94.65 -14.65,95.05"/>
    </edge>
    <edge id=":J1_2" function="internal">
        <lane id=":J1_2_0" index="0" speed="13.89" length="26.00" shape="-8.25,88.65 -8.25,114.65"/>
    </edge>
    <edge id=":J1_3" function="internal">
        <lane id=":J1_3_0" index="0" speed="13.89" length="28.95" shape="-8.25,88.65 -7.02,97.22 -3.35,103.35 2.78,107.03 11.35,108.25"/>
        <lane id=":J1_3_1" index="1" speed="13.89" length="28.95" shape="-4.95,88.65 -3.93,95.78 -0.87,100.88 4.22,103.93 11.35,104.95"/>
    </edge>
    <edge id=":J1_5" function="internal">
        <lane id=":J1_5_0" index="0" speed="13.89" length="7.66" shape="11.35,91.75 9.99,91.56 9.03,90.97 8.44,90.01 8.25,88.65"/>
        <lane id=":J1_5_1" index="1" speed="13.89" length="7.66" shape="11.35,95.05 8.55,94.65 6.55,93.45 5.35,91.45 4.95,88.65"/>
    </edge>
    <edge id=":J1_7" function="internal">
        <lane id=":J1_7_0" index="0" speed="13.89" length="26.00" shape="11.35,95.05 -14.65,95.05"/>
    </edge>
    <edge id=":J1_8" function="internal">
        <lane id=":J1_8_0" index="0" speed="13.89" length="28.95" shape="11.35,95.05 2.78,96.28 -3.35,99.95 -7.02,106.07 -8.25,114.65"/>
        <lane id=":J1_8_1" index="1" speed="13.89" length="28.95" shape="11.35,98.35 4.22,99.37 -0.87,102.42 -3.93,107.52 -4.95,114.65"/>
    </edge>
    <edge id=":J1_10" function="internal">
        <lane id=":J1_10_0" index="0" speed="13.89" length="7.66" shape="8.25,114.65 8.44,113.29 9.03,112.33 9.99,111.74 11.35,111.55"/>
        <lane id=":J1_10_1" index="1" speed="13.89" length="7.66" shape="4.95,114.65 5.35,111.85 6.55,109.85 8.55,108.65 11.35,108.25"/>
    </edge>
    <edge id=":J1_12" function="internal">
        <lane id=":J1_12_0" index="0" speed="13.89" length="26.00" shape="4.95,114.65 4.95,88.65"/>
    </edge>
    <edge id=":J1_13" function="internal">
        <lane id=":J1_13_0" index="0" speed="13.89" length="28.95" shape="4.95,114.65 3.72,106.07 0.05,99.95 -6.08,96.27 -14.65,95.05"/>
        <lane id=":J1_13_1" index="1" speed="13.89" length="28.95" shape="1.65,114.65 0.63,107.52 -2.42,102.43 -7.52,99.37 -14.65,98.35"/>
    </edge>
    <edge id=":J1_15" function="internal">
        <lane id=":J1_15_0" index="0" speed="13.89" length="7.66" shape="-14.65,111.55 -13.29,111.74 -12.33,112.32 -11.74,113.29 -11.55,114.65"/>
        <lane id=":J1_15_1" index="1" speed="13.89" length="7.66" shape="-14.65,108.25 -11.85,108.65 -9.85,109.85 -8.65,111.85 -8.25,114.65"/>
    </edge>
    <edge id=":J1_17" function="internal">
        <lane id=":J1_17_0" index="0" speed="13.89" length="26.00" shape="-14.65,108.25 11.35,108.25"/>
    </edge>
    <edge id=":J1_18" function="internal">
        <lane id=":J1_18_0" index="0" speed="13.89" length="28.95" shape="-14.65,108.25 -6.07,107.03 0.05,103.35 3.73,97.22 4.95,88.65"/>
        <lane id=":J1_18_1" index="1" speed="13.89" length="28.95" shape="-14.65,104.95 -7.52,103.93 -2.42,100.88 0.63,95.78 1.65,88.65"/>
    </edge>
    <edge id=":J2_0" function="internal">
        <lane id=":J2_0_0" index="0" speed="13.89" length="7.66" shape="188.45,88.65 188.26,90.01 187.68,90.97 186.71,91.56 185.35,91.75"/>
        <lane id=":J2_0_1" index="1" speed="13.89" length="7.66" shape="191.75,88.65 191.35,91.45 190.15,93.45 188.15,94.65 185.35,95.05"/>
    </edge>
    <edge id=":J2_2" function="internal">
        <lane id=":J2_2_0" index="0" speed="13.89" length="26.00" shape="191.75,88.65 191.75,114.65"/>
    </edge>
    <edge id=":J2_3" function="internal">
        <lane id=":J2_3_0" index="0" speed="13.89" length="20.80" shape="191.75,88.65 192.98,97.22 196.65,103.35 202.78,107.02 203.35,107.11"/>
        <lane id=":J2_3_1" index="1" speed="13.89" length="20.80" shape="195.05,88.65 196.07,95.78 199.13,100.88 203.35,103.41"/>
    </edge>
    <edge id=":J2_20" function="internal">
        <lane id=":J2_20_0" index="0" speed="13.89" length="8.08" shape="203.35,107.11 211.35,108.25"/>
    </edge>
    <edge id=":J2_21" function="internal">
        <lane id=":J2_21_0" index="0" speed="13.89" length="8.22" shape="203.35,103.41 204.22,103.93 211.35,104.95"/>
    </edge>
    <edge id=":J2_5" function="internal">
        <lane id=":J2_5_0" index="0" speed="13.89" length="7.66" shape="211.35,91.75 209.99,91.56 209.03,90.97 208.44,90.01 208.25,88.65"/>
        <lane id=":J2_5_1" index="1" speed="13.89" length="7.66" shape="211.35,95.05 208.55,94.65 206.55,93.45 205.35,91.45 204.95,88.65"/>
    </edge>
    <edge id=":J2_7" function="internal">
        <lane id=":J2_7_0" index="0" speed="13.89" length="26.00" shape="211.35,95.05 185.35,95.05"/>
    </edge>
    <edge id=":J2_8" function="internal">
        <lane id=":J2_8_0" index="0" speed="13.89" length="20.80" shape="211.35,95.05 202.78,96.28 196.65,99.95 192.98,106.08 192.89,106.65"/>
        <lane id=":J2_8_1" index="1" speed="13.89" length="20.80" shape="211.35,98.35 204.22,99.37 199.13,102.43 196.59,106.65"/>
    </edge>
    <edge id=":J2_22" function="internal">
        <lane id=":J2_22_0" index="0" speed="13.89" length="8.08" shape="192.89,106.65 191.75,114.65"/>
    </edge>
    <edge id=":J2_23" function="internal">
        <lane id=":J2_23_0" index="0" speed="13.89" length="8.22" shape="196.59,106.65 196.07,107.52 195.05,114.65"/>
    </edge>
    <edge id=":J2_10" function="internal">
        <lane id=":J2_10_0" index="0" speed="13.89" length="7.66" shape="208.25,114.65 208.44,113.29 209.03,112.33 209.99,111.74 211.35,111.55"/>
        <lane id=":J2_10_1" index="1" speed="13.89" length="7.66" shape="204.95,114.65 205.35,111.85 206.55,109.85 208.55,108.65 211.35,108.25"/>
    </edge>
    <edge id=":J2_12" function="internal">
        <lane id=":J2_12_0" index="0" speed="13.89" length="26.00" shape="204.95,114.65 204.95,88.65"/>
    </edge>
    <edge id=":J2_13" function="internal">
        <lane id=":J2_13_0" index="0" speed="13.89" length="20.80" shape="204.95,114.65 203.72,106.08 200.05,99.95 193.93,96.27 193.35,96.19"/>
        <lane id=":J2_13_1" index="1" speed="13.89" length="20.80" shape="201.65,114.65 200.63,107.52 197.58,102.42 193.35,99.89"/>
    </edge>
    <edge id=":J2_24" function="internal">
        <lane id=":J2_24_0" index="0" speed="13.89" length="8.08" shape="193.35,96.19 185.35,95.05"/>
    </edge>
    <edge id=":J2_25" function="internal">
        <lane id=":J2_25_0" index="0" speed="13.89" length="8.22" shape="193.35,99.89 192.48,99.37 185.35,98.35"/>
    </edge>
    <edge id=":J2_15" function="internal">
        <lane id=":J2_15_0" index="0" speed="13.89" length="7.66" shape="185.35,111.55 186.71,111.74 187.68,112.33 188.26,113.29 188.45,114.65"/>
        <lane id=":J2_15_1" index="1" speed="13.89" length="7.66" shape="185.35,108.25 188.15,108.65 190.15,109.85 191.35,111.85 191.75,114.65"/>
    </edge>
    <edge id=":J2_17" function="internal">
        <lane id=":J2_17_0" index="0" speed="13.89" length="26.00" shape="185.35,108.25 211.35,108.25"/>
    </edge>
    <edge id=":J2_18" function="internal">
        <lane id=":J2_18_0" index="0" speed="13.89" length="20.80" shape="185.35,108.25 193.92,107.03 200.05,103.35 203.72,97.22 203.81,96.65"/>
        <lane id=":J2_18_1" index="1" speed="13.89" length="20.80" shape="185.35,104.95 192.48,103.93 197.58,100.88 200.11,96.65"/>
    </edge>
    <edge id=":J2_26" function="internal">
        <lane id=":J2_26_0" index="0" speed="13.89" length="8.08" shape="203.81,96.65 204.95,88.65"/>
    </edge>
    <edge id=":J2_27" function="internal">
        <lane id=":J2_27_0" index="0" speed="13.89" length="8.22" shape="200.11,96.65 200.63,95.78 201.65,88.65"/>
    </edge>

    <edge id="R1" from="J1" to="B1" priority="1" shape="-3.30,100.00 -3.30,300.11">
        <lane id="R1_0" index="0" speed="13.89" length="185.35" shape="-11.55,114.65 -11.55,300.00"/>
        <lane id="R1_1" index="1" speed="13.89" length="185.35" shape="-8.25,114.65 -8.25,300.00"/>
        <lane id="R1_2" index="2" speed="13.89" length="185.35" shape="-4.95,114.65 -4.95,300.00"/>
    </edge>
    <edge id="R10" from="B4" to="J2" priority="1">
        <lane id="R10_0" index="0" speed="13.89" length="188.65" shape="400.00,91.75 211.35,91.75"/>
        <lane id="R10_1" index="1" speed="13.89" length="188.65" shape="400.00,95.05 211.35,95.05"/>
        <lane id="R10_2" index="2" speed="13.89" length="188.65" shape="400.00,98.35 211.35,98.35"/>
    </edge>
    <edge id="R11" from="B5" to="J1" priority="1" shape="-3.30,-100.11 -3.30,100.00">
        <lane id="R11_0" index="0" speed="13.89" length="188.65" shape="-11.55,-100.00 -11.55,88.65"/>
        <lane id="R11_1" index="1" speed="13.89" length="188.65" shape="-8.25,-100.00 -8.25,88.65"/>
        <lane id="R11_2" index="2" speed="13.89" length="188.65" shape="-4.95,-100.00 -4.95,88.65"/>
    </edge>
    <edge id="R12" from="J1" to="B5" priority="1">
        <lane id="R12_0" index="0" speed="13.89" length="188.65" shape="8.25,88.65 8.25,-100.00"/>
        <lane id="R12_1" index="1" speed="13.89" length="188.65" shape="4.95,88.65 4.95,-100.00"/>
        <lane id="R12_2" index="2" speed="13.89" length="188.65" shape="1.65,88.65 1.65,-100.00"/>
    </edge>
    <edge id="R13" from="B6" to="J2" priority="1" shape="196.70,-100.11 196.70,100.00">
        <lane id="R13_0" index="0" speed="13.89" length="188.65" shape="188.45,-100.00 188.45,88.65"/>
        <lane id="R13_1" index="1" speed="13.89" length="188.65" shape="191.75,-100.00 191.75,88.65"/>
        <lane id="R13_2" index="2" speed="13.89" length="188.65" shape="195.05,-100.00 195.05,88.65"/>
    </edge>
    <edge id="R14" from="J2" to="B6" priority="1">
        <lane id="R14_0" index="0" speed="13.89" length="188.65" shape="208.25,88.65 208.25,-100.00"/>
        <lane id="R14_1" index="1" speed="13.89" length="188.65" shape="204.95,88.65 204.95,-100.00"/>
        <lane id="R14_2" index="2" speed="13.89" length="188.65" shape="201.65,88.65 201.65,-100.00"/>
    </edge>
    <edge id="R2" from="B1" to="J1" priority="1">
        <lane id="R2_0" index="0" speed="13.89" length="185.35" shape="8.25,300.00 8.25,114.65"/>
        <lane id="R2_1" index="1" speed="13.89" length="185.35" shape="4.95,300.00 4.95,114.65"/>
        <lane id="R2_2" index="2" speed="13.89" length="185.35" shape="1.65,300.00 1.65,114.65"/>
    </edge>
    <edge id="R3" from="J2" to="B2" priority="1" shape="196.70,100.00 196.70,300.11">
        <lane id="R3_0" index="0" speed="13.89" length="185.35" shape="188.45,114.65 188.45,300.00"/>
        <lane id="R3_1" index="1" speed="13.89" length="185.35" shape="191.75,114.65 191.75,300.00"/>
        <lane id="R3_2" index="2" speed="13.89" length="185.35" shape="195.05,114.65 195.05,300.00"/>
    </edge>
    <edge id="R4" from="B2" to="J2" priority="1">
        <lane id="R4_0" index="0" speed="13.89" length="185.35" shape="208.25,300.00 208.25,114.65"/>
        <lane id="R4_1" index="1" speed="13.89" length="185.35" shape="204.95,300.00 204.95,114.65"/>
        <lane id="R4_2" index="2" speed="13.89" length="185.35" shape="201.65,300.00 201.65,114.65"/>
    </edge>
    <edge id="R5" from="B3" to="J1" priority="1" shape="-200.05,103.30 0.00,103.30">
        <lane id="R5_0" index="0" speed="13.89" length="185.40" shape="-200.05,111.55 -14.65,111.55"/>
        <lane id="R5_1" index="1" speed="13.89" length="185.40" shape="-200.05,108.25 -14.65,108.25"/>
        <lane id="R5_2" index="2" speed="13.89" length="185.40" shape="-200.05,104.95 -14.65,104.95"/>
    </edge>
    <edge id="R6" from="J1" to="B3" priority="1" spreadType="center" shape="0.01,95.05 -200.05,95.05">
        <lane id="R6_0" index="0" speed="13.89" length="185.40" shape="-14.65,91.75 -200.05,91.75"/>
        <lane id="R6_1" index="1" speed="13.89" length="185.40" shape="-14.65,95.05 -200.05,95.05"/>
        <lane id="R6_2" index="2" speed="13.89" length="185.40" shape="-14.65,98.35 -200.05,98.35"/>
    </edge>
    <edge id="R7" from="J1" to="J2" priority="1" shape="0.00,103.30 200.11,103.30">
        <lane id="R7_0" index="0" speed="13.89" length="174.00" shape="11.35,111.55 185.35,111.55"/>
        <lane id="R7_1" index="1" speed="13.89" length="174.00" shape="11.35,108.25 185.35,108.25"/>
        <lane id="R7_2" index="2" speed="13.89" length="174.00" shape="11.35,104.95 185.35,104.95"/>
    </edge>
    <edge id="R8" from="J2" to="J1" priority="1">
        <lane id="R8_0" index="0" speed="13.89" length="174.00" shape="185.35,91.75 11.35,91.75"/>
        <lane id="R8_1" index="1" speed="13.89" length="174.00" shape="185.35,95.05 11.35,95.05"/>
        <lane id="R8_2" index="2" speed="13.89" length="174.00" shape="185.35,98.35 11.35,98.35"/>
    </edge>
    <edge id="R9" from="J2" to="B4" priority="1" shape="200.00,103.30 400.11,103.30">
        <lane id="R9_0" index="0" speed="13.89" length="188.65" shape="211.35,111.55 400.00,111.55"/>
        <lane id="R9_1" index="1" speed="13.89" length="188.65" shape="211.35,108.25 400.00,108.25"/>
        <lane id="R9_2" index="2" speed="13.89" length="188.65" shape="211.35,104.95 400.00,104.95"/>
    </edge>

    <tlLogic id="J1" type="static" programID="0" offset="0">
        <phase duration="94" state="rrrrrrrrrrGGGGGGGrrr"/>	<!-- Phase 1 -->          
        <phase duration="5" state="rrrrrrrrrrYYYYYGGrrr"/>
        <phase duration="62" state="GGrrrrrrrrrrrrrGGGGG"/>	<!-- Phase 2 -->
        <phase duration="5" state="YYrrrrrrrrrrrrrYYYYY"/>
        <phase duration="13" state="rrrrrGGGGGGGrrrrrrrr"/>	<!-- Phase 3 -->
        <phase duration="5" state="rrrrrGGYYYYYrrrrrrrr"/>
        <phase duration="31" state="GGGGGGGrrrrrrrrrrrrr"/>	<!-- Phase 4 -->
        <phase duration="5" state="YYYYYYYrrrrrrrrrrrrr"/>
    </tlLogic>
    <tlLogic id="J2" type="static" programID="0" offset="0">
        <phase duration="15" state="rrrrrrrrrrGGGGGGGrrr"/>	<!-- Phase 1 -->
        <phase duration="5" state="rrrrrrrrrrYYYYYGGrrr"/>
        <phase duration="155" state="GGrrrrrrrrrrrrrGGGGG"/>	<!-- Phase 2 -->
        <phase duration="5" state="YYrrrrrrrrrrrrrYYYYY"/>
        <phase duration="15" state="rrrrrGGGGGGGrrrrrrrr"/>	<!-- Phase 3 -->
        <phase duration="5" state="rrrrrGGYYYYYrrrrrrrr"/>
        <phase duration="15" state="GGGGGGGrrrrrrrrrrrrr"/>	<!-- Phase 4 -->
        <phase duration="5" state="YYYYYYYrrrrrrrrrrrrr"/>
    </tlLogic>

    <junction id="B1" type="dead_end" x="0.00" y="300.00" incLanes="R1_0 R1_1 R1_2" intLanes="" shape="0.05,300.00 -13.15,300.00 -3.35,300.00"/>
    <junction id="B2" type="dead_end" x="200.00" y="300.00" incLanes="R3_0 R3_1 R3_2" intLanes="" shape="200.05,300.00 186.85,300.00 196.65,300.00"/>
    <junction id="B3" type="dead_end" x="-200.00" y="100.00" incLanes="R6_0 R6_1 R6_2" intLanes="" shape="-200.00,103.35 -200.00,90.15 -200.00,99.95"/>
    <junction id="B4" type="dead_end" x="400.00" y="100.00" incLanes="R9_0 R9_1 R9_2" intLanes="" shape="400.00,99.95 400.00,113.15 400.00,103.35"/>
    <junction id="B5" type="dead_end" x="0.00" y="-100.00" incLanes="R12_0 R12_1 R12_2" intLanes="" shape="-3.35,-100.00 9.85,-100.00 0.05,-100.00"/>
    <junction id="B6" type="dead_end" x="200.00" y="-100.00" incLanes="R14_0 R14_1 R14_2" intLanes="" shape="196.65,-100.00 209.85,-100.00 200.05,-100.00"/>
    <junction id="J1" type="traffic_light" x="0.00" y="100.00" incLanes="R11_0 R11_1 R11_2 R8_0 R8_1 R8_2 R2_0 R2_1 R2_2 R5_0 R5_1 R5_2" intLanes=":J1_0_0 :J1_0_1 :J1_2_0 :J1_3_0 :J1_3_1 :J1_5_0 :J1_5_1 :J1_7_0 :J1_8_0 :J1_8_1 :J1_10_0 :J1_10_1 :J1_12_0 :J1_13_0 :J1_13_1 :J1_15_0 :J1_15_1 :J1_17_0 :J1_18_0 :J1_18_1" shape="-13.15,88.65 9.85,88.65 11.35,90.15 11.35,113.15 9.85,114.65 -13.15,114.65 -14.65,113.15 -14.65,90.15">
        <request index="0" response="00000000000000000000" foes="00000110000010011100" cont="0"/>
        <request index="1" response="00000000000000000000" foes="00000110000010010000" cont="0"/>
        <request index="2" response="00000000000000000000" foes="11111110001110000000" cont="0"/>
        <request index="3" response="00000001110000000000" foes="11100001111110000001" cont="0"/>
        <request index="4" response="00000001110000000000" foes="11100001111110000111" cont="0"/>
        <request index="5" response="00000001000000000000" foes="11000001001110000000" cont="0"/>
        <request index="6" response="00000001000000000000" foes="11000001001000000000" cont="0"/>
        <request index="7" response="00000111000000011111" foes="11000111000000011111" cont="0"/>
        <request index="8" response="00111111000000011100" foes="00111111000000111100" cont="0"/>
        <request index="9" response="00111111000000011100" foes="00111111000011111100" cont="0"/>
        <request index="10" response="00000000000000000000" foes="00100111000000011000" cont="0"/>
        <request index="11" response="00000000000000000000" foes="00100100000000011000" cont="0"/>
        <request index="12" response="00000000000000000000" foes="11100000001111111000" cont="0"/>
        <request index="13" response="00000000000000000111" foes="11100000011110000111" cont="0"/>
        <request index="14" response="00000000000000000111" foes="11100001111110000111" cont="0"/>
        <request index="15" response="00000000000000000100" foes="11100000001100000100" cont="0"/>
        <request index="16" response="00000000000000000100" foes="10000000001100000100" cont="0"/>
        <request index="17" response="00000111110000011100" foes="00000111111100011100" cont="0"/>
        <request index="18" response="00000111000011111100" foes="00001111000011111100" cont="0"/>
        <request index="19" response="00000111000011111100" foes="00111111000011111100" cont="0"/>
    </junction>
    <junction id="J2" type="traffic_light" x="200.00" y="100.00" incLanes="R13_0 R13_1 R13_2 R10_0 R10_1 R10_2 R4_0 R4_1 R4_2 R7_0 R7_1 R7_2" intLanes=":J2_0_0 :J2_0_1 :J2_2_0 :J2_20_0 :J2_21_0 :J2_5_0 :J2_5_1 :J2_7_0 :J2_22_0 :J2_23_0 :J2_10_0 :J2_10_1 :J2_12_0 :J2_24_0 :J2_25_0 :J2_15_0 :J2_15_1 :J2_17_0 :J2_26_0 :J2_27_0" shape="186.85,88.65 209.85,88.65 211.35,90.15 211.35,113.15 209.85,114.65 186.85,114.65 185.35,113.15 185.35,90.15">
        <request index="0" response="00000000000000000000" foes="00000110000010011100" cont="0"/>
        <request index="1" response="00000000000000000000" foes="00000110000010010000" cont="0"/>
        <request index="2" response="00000000000000000000" foes="11111110001110000000" cont="0"/>
        <request index="3" response="00000001110000000000" foes="11100001111110000001" cont="1"/>
        <request index="4" response="00000001110000000000" foes="11100001111110000111" cont="1"/>
        <request index="5" response="00000001000000000000" foes="11000001001110000000" cont="0"/>
        <request index="6" response="00000001000000000000" foes="11000001001000000000" cont="0"/>
        <request index="7" response="00000111000000011111" foes="11000111000000011111" cont="0"/>
        <request index="8" response="00111111000000011100" foes="00111111000000111100" cont="1"/>
        <request index="9" response="00111111000000011100" foes="00111111000011111100" cont="1"/>
        <request index="10" response="00000000000000000000" foes="00100111000000011000" cont="0"/>
        <request index="11" response="00000000000000000000" foes="00100100000000011000" cont="0"/>
        <request index="12" response="00000000000000000000" foes="11100000001111111000" cont="0"/>
        <request index="13" response="00000000000000000111" foes="11100000011110000111" cont="1"/>
        <request index="14" response="00000000000000000111" foes="11100001111110000111" cont="1"/>
        <request index="15" response="00000000000000000100" foes="11100000001100000100" cont="0"/>
        <request index="16" response="00000000000000000100" foes="10000000001100000100" cont="0"/>
        <request index="17" response="00000111110000011100" foes="00000111111100011100" cont="0"/>
        <request index="18" response="00000111000011111100" foes="00001111000011111100" cont="1"/>
        <request index="19" response="00000111000011111100" foes="00111111000011111100" cont="1"/>
    </junction>

    <junction id=":J2_20_0" type="internal" x="203.35" y="107.11" incLanes=":J2_3_0 R4_0 R4_1" intLanes=":J2_7_0 :J2_8_0 :J2_8_1 :J2_10_0 :J2_10_1 :J2_12_0 :J2_17_0 :J2_18_0 :J2_18_1"/>
    <junction id=":J2_21_0" type="internal" x="203.35" y="103.41" incLanes=":J2_3_1 R4_0 R4_1" intLanes=":J2_7_0 :J2_8_0 :J2_8_1 :J2_10_0 :J2_10_1 :J2_12_0 :J2_17_0 :J2_18_0 :J2_18_1"/>
    <junction id=":J2_22_0" type="internal" x="192.89" y="106.65" incLanes=":J2_8_0 R7_0 R7_1" intLanes=":J2_2_0 :J2_3_0 :J2_3_1 :J2_12_0 :J2_13_0 :J2_13_1 :J2_15_0 :J2_15_1 :J2_17_0"/>
    <junction id=":J2_23_0" type="internal" x="196.59" y="106.65" incLanes=":J2_8_1 R7_0 R7_1" intLanes=":J2_2_0 :J2_3_0 :J2_3_1 :J2_12_0 :J2_13_0 :J2_13_1 :J2_15_0 :J2_15_1 :J2_17_0"/>
    <junction id=":J2_24_0" type="internal" x="193.35" y="96.19" incLanes=":J2_13_0 R13_0 R13_1" intLanes=":J2_0_0 :J2_0_1 :J2_2_0 :J2_7_0 :J2_8_0 :J2_8_1 :J2_17_0 :J2_18_0 :J2_18_1"/>
    <junction id=":J2_25_0" type="internal" x="193.35" y="99.89" incLanes=":J2_13_1 R13_0 R13_1" intLanes=":J2_0_0 :J2_0_1 :J2_2_0 :J2_7_0 :J2_8_0 :J2_8_1 :J2_17_0 :J2_18_0 :J2_18_1"/>
    <junction id=":J2_26_0" type="internal" x="203.81" y="96.65" incLanes=":J2_18_0 R10_0 R10_1" intLanes=":J2_2_0 :J2_3_0 :J2_3_1 :J2_5_0 :J2_5_1 :J2_7_0 :J2_12_0 :J2_13_0 :J2_13_1"/>
    <junction id=":J2_27_0" type="internal" x="200.11" y="96.65" incLanes=":J2_18_1 R10_0 R10_1" intLanes=":J2_2_0 :J2_3_0 :J2_3_1 :J2_5_0 :J2_5_1 :J2_7_0 :J2_12_0 :J2_13_0 :J2_13_1"/>

    <connection from="R10" to="R14" fromLane="0" toLane="0" via=":J2_5_0" tl="J2" linkIndex="5" dir="l" state="o"/>
    <connection from="R10" to="R14" fromLane="1" toLane="1" via=":J2_5_1" tl="J2" linkIndex="6" dir="l" state="o"/>
    <connection from="R10" to="R8" fromLane="1" toLane="1" via=":J2_7_0" tl="J2" linkIndex="7" dir="s" state="o"/>
    <connection from="R10" to="R3" fromLane="1" toLane="1" via=":J2_8_0" tl="J2" linkIndex="8" dir="r" state="o"/>
    <connection from="R10" to="R3" fromLane="2" toLane="2" via=":J2_8_1" tl="J2" linkIndex="9" dir="r" state="o"/>
    <connection from="R11" to="R6" fromLane="0" toLane="0" via=":J1_0_0" tl="J1" linkIndex="0" dir="l" state="o"/>
    <connection from="R11" to="R6" fromLane="1" toLane="1" via=":J1_0_1" tl="J1" linkIndex="1" dir="l" state="o"/>
    <connection from="R11" to="R1" fromLane="1" toLane="1" via=":J1_2_0" tl="J1" linkIndex="2" dir="s" state="o"/>
    <connection from="R11" to="R7" fromLane="1" toLane="1" via=":J1_3_0" tl="J1" linkIndex="3" dir="r" state="o"/>
    <connection from="R11" to="R7" fromLane="2" toLane="2" via=":J1_3_1" tl="J1" linkIndex="4" dir="r" state="o"/>
    <connection from="R13" to="R8" fromLane="0" toLane="0" via=":J2_0_0" tl="J2" linkIndex="0" dir="l" state="o"/>
    <connection from="R13" to="R8" fromLane="1" toLane="1" via=":J2_0_1" tl="J2" linkIndex="1" dir="l" state="o"/>
    <connection from="R13" to="R3" fromLane="1" toLane="1" via=":J2_2_0" tl="J2" linkIndex="2" dir="s" state="o"/>
    <connection from="R13" to="R9" fromLane="1" toLane="1" via=":J2_3_0" tl="J2" linkIndex="3" dir="r" state="o"/>
    <connection from="R13" to="R9" fromLane="2" toLane="2" via=":J2_3_1" tl="J2" linkIndex="4" dir="r" state="o"/>
    <connection from="R2" to="R7" fromLane="0" toLane="0" via=":J1_10_0" tl="J1" linkIndex="10" dir="l" state="o"/>
    <connection from="R2" to="R7" fromLane="1" toLane="1" via=":J1_10_1" tl="J1" linkIndex="11" dir="l" state="o"/>
    <connection from="R2" to="R12" fromLane="1" toLane="1" via=":J1_12_0" tl="J1" linkIndex="12" dir="s" state="o"/>
    <connection from="R2" to="R6" fromLane="1" toLane="1" via=":J1_13_0" tl="J1" linkIndex="13" dir="r" state="o"/>
    <connection from="R2" to="R6" fromLane="2" toLane="2" via=":J1_13_1" tl="J1" linkIndex="14" dir="r" state="o"/>
    <connection from="R4" to="R9" fromLane="0" toLane="0" via=":J2_10_0" tl="J2" linkIndex="10" dir="l" state="o"/>
    <connection from="R4" to="R9" fromLane="1" toLane="1" via=":J2_10_1" tl="J2" linkIndex="11" dir="l" state="o"/>
    <connection from="R4" to="R14" fromLane="1" toLane="1" via=":J2_12_0" tl="J2" linkIndex="12" dir="s" state="o"/>
    <connection from="R4" to="R8" fromLane="1" toLane="1" via=":J2_13_0" tl="J2" linkIndex="13" dir="r" state="o"/>
    <connection from="R4" to="R8" fromLane="2" toLane="2" via=":J2_13_1" tl="J2" linkIndex="14" dir="r" state="o"/>
    <connection from="R5" to="R1" fromLane="0" toLane="0" via=":J1_15_0" tl="J1" linkIndex="15" dir="l" state="o"/>
    <connection from="R5" to="R1" fromLane="1" toLane="1" via=":J1_15_1" tl="J1" linkIndex="16" dir="l" state="o"/>
    <connection from="R5" to="R7" fromLane="1" toLane="1" via=":J1_17_0" tl="J1" linkIndex="17" dir="s" state="o"/>
    <connection from="R5" to="R12" fromLane="1" toLane="1" via=":J1_18_0" tl="J1" linkIndex="18" dir="r" state="o"/>
    <connection from="R5" to="R12" fromLane="2" toLane="2" via=":J1_18_1" tl="J1" linkIndex="19" dir="r" state="o"/>
    <connection from="R7" to="R3" fromLane="0" toLane="0" via=":J2_15_0" tl="J2" linkIndex="15" dir="l" state="o"/>
    <connection from="R7" to="R3" fromLane="1" toLane="1" via=":J2_15_1" tl="J2" linkIndex="16" dir="l" state="o"/>
    <connection from="R7" to="R9" fromLane="1" toLane="1" via=":J2_17_0" tl="J2" linkIndex="17" dir="s" state="o"/>
    <connection from="R7" to="R14" fromLane="1" toLane="1" via=":J2_18_0" tl="J2" linkIndex="18" dir="r" state="o"/>
    <connection from="R7" to="R14" fromLane="2" toLane="2" via=":J2_18_1" tl="J2" linkIndex="19" dir="r" state="o"/>
    <connection from="R8" to="R12" fromLane="0" toLane="0" via=":J1_5_0" tl="J1" linkIndex="5" dir="l" state="o"/>
    <connection from="R8" to="R12" fromLane="1" toLane="1" via=":J1_5_1" tl="J1" linkIndex="6" dir="l" state="o"/>
    <connection from="R8" to="R6" fromLane="1" toLane="1" via=":J1_7_0" tl="J1" linkIndex="7" dir="s" state="o"/>
    <connection from="R8" to="R1" fromLane="1" toLane="1" via=":J1_8_0" tl="J1" linkIndex="8" dir="r" state="o"/>
    <connection from="R8" to="R1" fromLane="2" toLane="2" via=":J1_8_1" tl="J1" linkIndex="9" dir="r" state="o"/>

    <connection from=":J1_0" to="R6" fromLane="0" toLane="0" dir="s" state="M"/>
    <connection from=":J1_0" to="R6" fromLane="1" toLane="1" dir="s" state="M"/>
    <connection from=":J1_2" to="R1" fromLane="0" toLane="1" dir="s" state="M"/>
    <connection from=":J1_3" to="R7" fromLane="0" toLane="1" dir="s" state="M"/>
    <connection from=":J1_3" to="R7" fromLane="1" toLane="2" dir="s" state="M"/>
    <connection from=":J1_5" to="R12" fromLane="0" toLane="0" dir="s" state="M"/>
    <connection from=":J1_5" to="R12" fromLane="1" toLane="1" dir="s" state="M"/>
    <connection from=":J1_7" to="R6" fromLane="0" toLane="1" dir="s" state="M"/>
    <connection from=":J1_8" to="R1" fromLane="0" toLane="1" dir="s" state="M"/>
    <connection from=":J1_8" to="R1" fromLane="1" toLane="2" dir="s" state="M"/>
    <connection from=":J1_10" to="R7" fromLane="0" toLane="0" dir="s" state="M"/>
    <connection from=":J1_10" to="R7" fromLane="1" toLane="1" dir="s" state="M"/>
    <connection from=":J1_12" to="R12" fromLane="0" toLane="1" dir="s" state="M"/>
    <connection from=":J1_13" to="R6" fromLane="0" toLane="1" dir="s" state="M"/>
    <connection from=":J1_13" to="R6" fromLane="1" toLane="2" dir="s" state="M"/>
    <connection from=":J1_15" to="R1" fromLane="0" toLane="0" dir="s" state="M"/>
    <connection from=":J1_15" to="R1" fromLane="1" toLane="1" dir="s" state="M"/>
    <connection from=":J1_17" to="R7" fromLane="0" toLane="1" dir="s" state="M"/>
    <connection from=":J1_18" to="R12" fromLane="0" toLane="1" dir="s" state="M"/>
    <connection from=":J1_18" to="R12" fromLane="1" toLane="2" dir="s" state="M"/>
    <connection from=":J2_0" to="R8" fromLane="0" toLane="0" dir="s" state="M"/>
    <connection from=":J2_0" to="R8" fromLane="1" toLane="1" dir="s" state="M"/>
    <connection from=":J2_2" to="R3" fromLane="0" toLane="1" dir="s" state="M"/>
    <connection from=":J2_3" to="R9" fromLane="0" toLane="1" via=":J2_20_0" dir="s" state="m"/>
    <connection from=":J2_20" to="R9" fromLane="0" toLane="1" dir="s" state="M"/>
    <connection from=":J2_3" to="R9" fromLane="1" toLane="2" via=":J2_21_0" dir="s" state="m"/>
    <connection from=":J2_21" to="R9" fromLane="0" toLane="2" dir="s" state="M"/>
    <connection from=":J2_5" to="R14" fromLane="0" toLane="0" dir="s" state="M"/>